.SUBCKT DCIM VSS VDD clk rst_n in_valid in_data1[127] in_data1[126] in_data1[125] in_data1[124] in_data1[123] in_data1[122] in_data1[121] in_data1[120] in_data1[119] in_data1[118] in_data1[117] in_data1[116] in_data1[115] in_data1[114] in_data1[113] in_data1[112] in_data1[111] in_data1[110] in_data1[109] in_data1[108] in_data1[107] in_data1[106] in_data1[105] in_data1[104] in_data1[103] in_data1[102] in_data1[101] in_data1[100] in_data1[99] in_data1[98] in_data1[97] in_data1[96] in_data1[95] in_data1[94] in_data1[93] in_data1[92] in_data1[91] in_data1[90] in_data1[89] in_data1[88] in_data1[87] in_data1[86] in_data1[85] in_data1[84] in_data1[83] in_data1[82] in_data1[81] in_data1[80] in_data1[79] in_data1[78] in_data1[77] in_data1[76] in_data1[75] in_data1[74] in_data1[73] in_data1[72] in_data1[71] in_data1[70] in_data1[69] in_data1[68] in_data1[67] in_data1[66] in_data1[65] in_data1[64] in_data1[63] in_data1[62] in_data1[61] in_data1[60] in_data1[59] in_data1[58] in_data1[57] in_data1[56] in_data1[55] in_data1[54] in_data1[53] in_data1[52] in_data1[51] in_data1[50] in_data1[49] in_data1[48] in_data1[47] in_data1[46] in_data1[45] in_data1[44] in_data1[43] in_data1[42] in_data1[41] in_data1[40] in_data1[39] in_data1[38] in_data1[37] in_data1[36] in_data1[35] in_data1[34] in_data1[33] in_data1[32] in_data1[31] in_data1[30] in_data1[29] in_data1[28] in_data1[27] in_data1[26] in_data1[25] in_data1[24] in_data1[23] in_data1[22] in_data1[21] in_data1[20] in_data1[19] in_data1[18] in_data1[17] in_data1[16] in_data1[15] in_data1[14] in_data1[13] in_data1[12] in_data1[11] in_data1[10] in_data1[9] in_data1[8] in_data1[7] in_data1[6] in_data1[5] in_data1[4] in_data1[3] in_data1[2] in_data1[1] in_data1[0] in_data2[127] in_data2[126] in_data2[125] in_data2[124] in_data2[123] in_data2[122] in_data2[121] in_data2[120] in_data2[119] in_data2[118] in_data2[117] in_data2[116] in_data2[115] in_data2[114] in_data2[113] in_data2[112] in_data2[111] in_data2[110] in_data2[109] in_data2[108] in_data2[107] in_data2[106] in_data2[105] in_data2[104] in_data2[103] in_data2[102] in_data2[101] in_data2[100] in_data2[99] in_data2[98] in_data2[97] in_data2[96] in_data2[95] in_data2[94] in_data2[93] in_data2[92] in_data2[91] in_data2[90] in_data2[89] in_data2[88] in_data2[87] in_data2[86] in_data2[85] in_data2[84] in_data2[83] in_data2[82] in_data2[81] in_data2[80] in_data2[79] in_data2[78] in_data2[77] in_data2[76] in_data2[75] in_data2[74] in_data2[73] in_data2[72] in_data2[71] in_data2[70] in_data2[69] in_data2[68] in_data2[67] in_data2[66] in_data2[65] in_data2[64] in_data2[63] in_data2[62] in_data2[61] in_data2[60] in_data2[59] in_data2[58] in_data2[57] in_data2[56] in_data2[55] in_data2[54] in_data2[53] in_data2[52] in_data2[51] in_data2[50] in_data2[49] in_data2[48] in_data2[47] in_data2[46] in_data2[45] in_data2[44] in_data2[43] in_data2[42] in_data2[41] in_data2[40] in_data2[39] in_data2[38] in_data2[37] in_data2[36] in_data2[35] in_data2[34] in_data2[33] in_data2[32] in_data2[31] in_data2[30] in_data2[29] in_data2[28] in_data2[27] in_data2[26] in_data2[25] in_data2[24] in_data2[23] in_data2[22] in_data2[21] in_data2[20] in_data2[19] in_data2[18] in_data2[17] in_data2[16] in_data2[15] in_data2[14] in_data2[13] in_data2[12] in_data2[11] in_data2[10] in_data2[9] in_data2[8] in_data2[7] in_data2[6] in_data2[5] in_data2[4] in_data2[3] in_data2[2] in_data2[1] in_data2[0] in_data3[127] in_data3[126] in_data3[125] in_data3[124] in_data3[123] in_data3[122] in_data3[121] in_data3[120] in_data3[119] in_data3[118] in_data3[117] in_data3[116] in_data3[115] in_data3[114] in_data3[113] in_data3[112] in_data3[111] in_data3[110] in_data3[109] in_data3[108] in_data3[107] in_data3[106] in_data3[105] in_data3[104] in_data3[103] in_data3[102] in_data3[101] in_data3[100] in_data3[99] in_data3[98] in_data3[97] in_data3[96] in_data3[95] in_data3[94] in_data3[93] in_data3[92] in_data3[91] in_data3[90] in_data3[89] in_data3[88] in_data3[87] in_data3[86] in_data3[85] in_data3[84] in_data3[83] in_data3[82] in_data3[81] in_data3[80] in_data3[79] in_data3[78] in_data3[77] in_data3[76] in_data3[75] in_data3[74] in_data3[73] in_data3[72] in_data3[71] in_data3[70] in_data3[69] in_data3[68] in_data3[67] in_data3[66] in_data3[65] in_data3[64] in_data3[63] in_data3[62] in_data3[61] in_data3[60] in_data3[59] in_data3[58] in_data3[57] in_data3[56] in_data3[55] in_data3[54] in_data3[53] in_data3[52] in_data3[51] in_data3[50] in_data3[49] in_data3[48] in_data3[47] in_data3[46] in_data3[45] in_data3[44] in_data3[43] in_data3[42] in_data3[41] in_data3[40] in_data3[39] in_data3[38] in_data3[37] in_data3[36] in_data3[35] in_data3[34] in_data3[33] in_data3[32] in_data3[31] in_data3[30] in_data3[29] in_data3[28] in_data3[27] in_data3[26] in_data3[25] in_data3[24] in_data3[23] in_data3[22] in_data3[21] in_data3[20] in_data3[19] in_data3[18] in_data3[17] in_data3[16] in_data3[15] in_data3[14] in_data3[13] in_data3[12] in_data3[11] in_data3[10] in_data3[9] in_data3[8] in_data3[7] in_data3[6] in_data3[5] in_data3[4] in_data3[3] in_data3[2] in_data3[1] in_data3[0] in_data4[127] in_data4[126] in_data4[125] in_data4[124] in_data4[123] in_data4[122] in_data4[121] in_data4[120] in_data4[119] in_data4[118] in_data4[117] in_data4[116] in_data4[115] in_data4[114] in_data4[113] in_data4[112] in_data4[111] in_data4[110] in_data4[109] in_data4[108] in_data4[107] in_data4[106] in_data4[105] in_data4[104] in_data4[103] in_data4[102] in_data4[101] in_data4[100] in_data4[99] in_data4[98] in_data4[97] in_data4[96] in_data4[95] in_data4[94] in_data4[93] in_data4[92] in_data4[91] in_data4[90] in_data4[89] in_data4[88] in_data4[87] in_data4[86] in_data4[85] in_data4[84] in_data4[83] in_data4[82] in_data4[81] in_data4[80] in_data4[79] in_data4[78] in_data4[77] in_data4[76] in_data4[75] in_data4[74] in_data4[73] in_data4[72] in_data4[71] in_data4[70] in_data4[69] in_data4[68] in_data4[67] in_data4[66] in_data4[65] in_data4[64] in_data4[63] in_data4[62] in_data4[61] in_data4[60] in_data4[59] in_data4[58] in_data4[57] in_data4[56] in_data4[55] in_data4[54] in_data4[53] in_data4[52] in_data4[51] in_data4[50] in_data4[49] in_data4[48] in_data4[47] in_data4[46] in_data4[45] in_data4[44] in_data4[43] in_data4[42] in_data4[41] in_data4[40] in_data4[39] in_data4[38] in_data4[37] in_data4[36] in_data4[35] in_data4[34] in_data4[33] in_data4[32] in_data4[31] in_data4[30] in_data4[29] in_data4[28] in_data4[27] in_data4[26] in_data4[25] in_data4[24] in_data4[23] in_data4[22] in_data4[21] in_data4[20] in_data4[19] in_data4[18] in_data4[17] in_data4[16] in_data4[15] in_data4[14] in_data4[13] in_data4[12] in_data4[11] in_data4[10] in_data4[9] in_data4[8] in_data4[7] in_data4[6] in_data4[5] in_data4[4] in_data4[3] in_data4[2] in_data4[1] in_data4[0] out_valid O1[12] O1[11] O1[10] O1[9] O1[8] O1[7] O1[6] O1[5] O1[4] O1[3] O1[2] O1[1] O1[0] O2[12] O2[11] O2[10] O2[9] O2[8] O2[7] O2[6] O2[5] O2[4] O2[3] O2[2] O2[1] O2[0] O3[12] O3[11] O3[10] O3[9] O3[8] O3[7] O3[6] O3[5] O3[4] O3[3] O3[2] O3[1] O3[0] O4[12] O4[11] O4[10] O4[9] O4[8] O4[7] O4[6] O4[5] O4[4] O4[3] O4[2] O4[1] O4[0]
XU1157 VSS VDD n287 n289 n1074 AND2x2_ASAP7_75t_R
Xin_valid_dff_reg VSS VDD clk in_valid n183 n938 n345 ASYNC_DFFHx1_ASAP7_75t_R
Xin_valid_dff_2_reg VSS VDD clk n860 n183 n872 n344 ASYNC_DFFHx1_ASAP7_75t_R
XO4_reg_12_ VSS VDD clk N1614 n183 n870 n343 ASYNC_DFFHx1_ASAP7_75t_R
XO4_reg_11_ VSS VDD clk N1613 n183 n944 n342 ASYNC_DFFHx1_ASAP7_75t_R
XO4_reg_10_ VSS VDD clk N1612 n183 n890 n341 ASYNC_DFFHx1_ASAP7_75t_R
XO4_reg_9_ VSS VDD clk N1611 n183 n918 n340 ASYNC_DFFHx1_ASAP7_75t_R
XO4_reg_8_ VSS VDD clk N1610 n183 n902 n339 ASYNC_DFFHx1_ASAP7_75t_R
XO4_reg_7_ VSS VDD clk N1609 n183 n952 n338 ASYNC_DFFHx1_ASAP7_75t_R
XO4_reg_6_ VSS VDD clk N1608 n183 n876 n337 ASYNC_DFFHx1_ASAP7_75t_R
XO4_reg_5_ VSS VDD clk N1607 n183 n978 n336 ASYNC_DFFHx1_ASAP7_75t_R
XO4_reg_4_ VSS VDD clk N1606 n183 n1015 n335 ASYNC_DFFHx1_ASAP7_75t_R
XO4_reg_3_ VSS VDD clk N1605 n183 n949 n334 ASYNC_DFFHx1_ASAP7_75t_R
XO4_reg_2_ VSS VDD clk N1604 n183 n931 n333 ASYNC_DFFHx1_ASAP7_75t_R
XO4_reg_1_ VSS VDD clk N1603 n183 n979 n332 ASYNC_DFFHx1_ASAP7_75t_R
XO4_reg_0_ VSS VDD clk N1602 n183 n959 n331 ASYNC_DFFHx1_ASAP7_75t_R
XO1_reg_12_ VSS VDD clk N1575 n183 n885 n330 ASYNC_DFFHx1_ASAP7_75t_R
XO1_reg_11_ VSS VDD clk N1574 n183 n903 n329 ASYNC_DFFHx1_ASAP7_75t_R
XO1_reg_10_ VSS VDD clk N1573 n183 n905 n328 ASYNC_DFFHx1_ASAP7_75t_R
XO1_reg_9_ VSS VDD clk N1572 n183 n958 n327 ASYNC_DFFHx1_ASAP7_75t_R
XO1_reg_8_ VSS VDD clk N1571 n183 n981 n326 ASYNC_DFFHx1_ASAP7_75t_R
XO1_reg_7_ VSS VDD clk N1570 n183 n986 n325 ASYNC_DFFHx1_ASAP7_75t_R
XO1_reg_6_ VSS VDD clk N1569 n183 n988 n324 ASYNC_DFFHx1_ASAP7_75t_R
XO1_reg_5_ VSS VDD clk N1568 n183 n875 n323 ASYNC_DFFHx1_ASAP7_75t_R
XO1_reg_4_ VSS VDD clk N1567 n183 n940 n322 ASYNC_DFFHx1_ASAP7_75t_R
XO1_reg_3_ VSS VDD clk N1566 n183 n881 n321 ASYNC_DFFHx1_ASAP7_75t_R
XO1_reg_2_ VSS VDD clk N1565 n183 n873 n320 ASYNC_DFFHx1_ASAP7_75t_R
XO1_reg_1_ VSS VDD clk N1564 n183 n866 n319 ASYNC_DFFHx1_ASAP7_75t_R
XO1_reg_0_ VSS VDD clk N1563 n183 n927 n318 ASYNC_DFFHx1_ASAP7_75t_R
XO2_reg_12_ VSS VDD clk N1588 n183 n972 n317 ASYNC_DFFHx1_ASAP7_75t_R
XO2_reg_11_ VSS VDD clk N1587 n183 n867 n316 ASYNC_DFFHx1_ASAP7_75t_R
XO2_reg_10_ VSS VDD clk N1586 n183 n884 n315 ASYNC_DFFHx1_ASAP7_75t_R
XO2_reg_9_ VSS VDD clk N1585 n183 n1007 n314 ASYNC_DFFHx1_ASAP7_75t_R
XO2_reg_8_ VSS VDD clk N1584 n183 n982 n313 ASYNC_DFFHx1_ASAP7_75t_R
XO2_reg_7_ VSS VDD clk N1583 n183 n976 n312 ASYNC_DFFHx1_ASAP7_75t_R
XO2_reg_6_ VSS VDD clk N1582 n183 n962 n311 ASYNC_DFFHx1_ASAP7_75t_R
XO2_reg_5_ VSS VDD clk N1581 n183 n898 n310 ASYNC_DFFHx1_ASAP7_75t_R
XO2_reg_4_ VSS VDD clk N1580 n183 n985 n309 ASYNC_DFFHx1_ASAP7_75t_R
XO2_reg_3_ VSS VDD clk N1579 n183 n871 n308 ASYNC_DFFHx1_ASAP7_75t_R
XO2_reg_2_ VSS VDD clk N1578 n183 n864 n307 ASYNC_DFFHx1_ASAP7_75t_R
XO2_reg_1_ VSS VDD clk N1577 n183 n874 n306 ASYNC_DFFHx1_ASAP7_75t_R
XO2_reg_0_ VSS VDD clk N1576 n183 n920 n305 ASYNC_DFFHx1_ASAP7_75t_R
XO3_reg_12_ VSS VDD clk N1601 n183 n951 n304 ASYNC_DFFHx1_ASAP7_75t_R
XO3_reg_11_ VSS VDD clk N1600 n183 n939 n303 ASYNC_DFFHx1_ASAP7_75t_R
XO3_reg_10_ VSS VDD clk N1599 n183 n891 n302 ASYNC_DFFHx1_ASAP7_75t_R
XO3_reg_9_ VSS VDD clk N1598 n183 n987 n301 ASYNC_DFFHx1_ASAP7_75t_R
XO3_reg_8_ VSS VDD clk N1597 n183 n921 n300 ASYNC_DFFHx1_ASAP7_75t_R
XO3_reg_7_ VSS VDD clk N1596 n183 n908 n299 ASYNC_DFFHx1_ASAP7_75t_R
XO3_reg_6_ VSS VDD clk N1595 n183 n897 n298 ASYNC_DFFHx1_ASAP7_75t_R
XO3_reg_5_ VSS VDD clk N1594 n183 n877 n297 ASYNC_DFFHx1_ASAP7_75t_R
XO3_reg_4_ VSS VDD clk N1593 n183 n880 n296 ASYNC_DFFHx1_ASAP7_75t_R
XO3_reg_3_ VSS VDD clk N1592 n183 n923 n295 ASYNC_DFFHx1_ASAP7_75t_R
XO3_reg_2_ VSS VDD clk N1591 n183 n879 n294 ASYNC_DFFHx1_ASAP7_75t_R
XO3_reg_1_ VSS VDD clk N1590 n183 n889 n293 ASYNC_DFFHx1_ASAP7_75t_R
XO3_reg_0_ VSS VDD clk N1589 n183 n1008 n292 ASYNC_DFFHx1_ASAP7_75t_R
Xout_valid_reg VSS VDD clk n863 n183 n932 n291 ASYNC_DFFHx1_ASAP7_75t_R
Xcnt_reg_0_ VSS VDD clk n290 n183 n865 n289 ASYNC_DFFHx1_ASAP7_75t_R
Xcnt_reg_1_ VSS VDD clk n288 n183 n1012 n287 ASYNC_DFFHx1_ASAP7_75t_R
Xsum4_reg_12_ VSS VDD clk n286 n183 n983 n285 ASYNC_DFFHx1_ASAP7_75t_R
Xsum4_reg_11_ VSS VDD clk n284 n183 n930 n283 ASYNC_DFFHx1_ASAP7_75t_R
Xsum4_reg_10_ VSS VDD clk n282 n183 n893 n281 ASYNC_DFFHx1_ASAP7_75t_R
Xsum4_reg_9_ VSS VDD clk n280 n183 n909 n279 ASYNC_DFFHx1_ASAP7_75t_R
Xsum4_reg_8_ VSS VDD clk n278 n183 n1001 n277 ASYNC_DFFHx1_ASAP7_75t_R
Xsum4_reg_7_ VSS VDD clk n276 n183 n953 n275 ASYNC_DFFHx1_ASAP7_75t_R
Xsum4_reg_6_ VSS VDD clk n274 n183 n892 n273 ASYNC_DFFHx1_ASAP7_75t_R
Xsum4_reg_5_ VSS VDD clk n272 n183 n906 n271 ASYNC_DFFHx1_ASAP7_75t_R
Xsum4_reg_4_ VSS VDD clk n270 n183 n894 n269 ASYNC_DFFHx1_ASAP7_75t_R
Xsum4_reg_3_ VSS VDD clk n268 n183 n1018 n267 ASYNC_DFFHx1_ASAP7_75t_R
Xsum4_reg_2_ VSS VDD clk n266 n183 n954 n265 ASYNC_DFFHx1_ASAP7_75t_R
Xsum4_reg_1_ VSS VDD clk n264 n183 n977 n263 ASYNC_DFFHx1_ASAP7_75t_R
Xsum4_reg_0_ VSS VDD clk n262 n183 n945 n261 ASYNC_DFFHx1_ASAP7_75t_R
Xsum1_reg_12_ VSS VDD clk n260 n183 n904 n259 ASYNC_DFFHx1_ASAP7_75t_R
Xsum1_reg_11_ VSS VDD clk n258 n183 n896 n257 ASYNC_DFFHx1_ASAP7_75t_R
Xsum1_reg_10_ VSS VDD clk n256 n183 n947 n255 ASYNC_DFFHx1_ASAP7_75t_R
Xsum1_reg_9_ VSS VDD clk n254 n183 n887 n253 ASYNC_DFFHx1_ASAP7_75t_R
Xsum1_reg_8_ VSS VDD clk n252 n183 n899 n251 ASYNC_DFFHx1_ASAP7_75t_R
Xsum1_reg_7_ VSS VDD clk n250 n183 n1013 n249 ASYNC_DFFHx1_ASAP7_75t_R
Xsum1_reg_6_ VSS VDD clk n248 n183 n924 n247 ASYNC_DFFHx1_ASAP7_75t_R
Xsum1_reg_5_ VSS VDD clk n246 n183 n878 n245 ASYNC_DFFHx1_ASAP7_75t_R
Xsum1_reg_4_ VSS VDD clk n244 n183 n1006 n243 ASYNC_DFFHx1_ASAP7_75t_R
Xsum1_reg_3_ VSS VDD clk n242 n183 n922 n241 ASYNC_DFFHx1_ASAP7_75t_R
Xsum1_reg_2_ VSS VDD clk n240 n183 n963 n239 ASYNC_DFFHx1_ASAP7_75t_R
Xsum1_reg_1_ VSS VDD clk n238 n183 n895 n237 ASYNC_DFFHx1_ASAP7_75t_R
Xsum1_reg_0_ VSS VDD clk n236 n183 n950 n235 ASYNC_DFFHx1_ASAP7_75t_R
Xsum2_reg_12_ VSS VDD clk n234 n183 n1014 n233 ASYNC_DFFHx1_ASAP7_75t_R
Xsum2_reg_11_ VSS VDD clk n232 n183 n1011 n231 ASYNC_DFFHx1_ASAP7_75t_R
Xsum2_reg_10_ VSS VDD clk n230 n183 n948 n229 ASYNC_DFFHx1_ASAP7_75t_R
Xsum2_reg_9_ VSS VDD clk n228 n183 n973 n227 ASYNC_DFFHx1_ASAP7_75t_R
Xsum2_reg_8_ VSS VDD clk n226 n183 n942 n225 ASYNC_DFFHx1_ASAP7_75t_R
Xsum2_reg_7_ VSS VDD clk n224 n183 n1010 n223 ASYNC_DFFHx1_ASAP7_75t_R
Xsum2_reg_6_ VSS VDD clk n222 n183 n925 n221 ASYNC_DFFHx1_ASAP7_75t_R
Xsum2_reg_5_ VSS VDD clk n220 n183 n869 n219 ASYNC_DFFHx1_ASAP7_75t_R
Xsum2_reg_4_ VSS VDD clk n218 n183 n883 n217 ASYNC_DFFHx1_ASAP7_75t_R
Xsum2_reg_3_ VSS VDD clk n216 n183 n980 n215 ASYNC_DFFHx1_ASAP7_75t_R
Xsum2_reg_2_ VSS VDD clk n214 n183 n946 n213 ASYNC_DFFHx1_ASAP7_75t_R
Xsum2_reg_1_ VSS VDD clk n212 n183 n941 n211 ASYNC_DFFHx1_ASAP7_75t_R
Xsum2_reg_0_ VSS VDD clk n210 n183 n868 n209 ASYNC_DFFHx1_ASAP7_75t_R
Xsum3_reg_12_ VSS VDD clk n208 n183 n919 n207 ASYNC_DFFHx1_ASAP7_75t_R
Xsum3_reg_11_ VSS VDD clk n206 n183 n900 n205 ASYNC_DFFHx1_ASAP7_75t_R
Xsum3_reg_10_ VSS VDD clk n204 n183 n943 n203 ASYNC_DFFHx1_ASAP7_75t_R
Xsum3_reg_9_ VSS VDD clk n202 n183 n882 n201 ASYNC_DFFHx1_ASAP7_75t_R
Xsum3_reg_8_ VSS VDD clk n200 n183 n928 n199 ASYNC_DFFHx1_ASAP7_75t_R
Xsum3_reg_7_ VSS VDD clk n198 n183 n926 n197 ASYNC_DFFHx1_ASAP7_75t_R
Xsum3_reg_6_ VSS VDD clk n196 n183 n886 n195 ASYNC_DFFHx1_ASAP7_75t_R
Xsum3_reg_5_ VSS VDD clk n194 n183 n888 n193 ASYNC_DFFHx1_ASAP7_75t_R
Xsum3_reg_4_ VSS VDD clk n192 n183 n937 n191 ASYNC_DFFHx1_ASAP7_75t_R
Xsum3_reg_3_ VSS VDD clk n190 n183 n929 n189 ASYNC_DFFHx1_ASAP7_75t_R
Xsum3_reg_2_ VSS VDD clk n188 n183 n1009 n187 ASYNC_DFFHx1_ASAP7_75t_R
Xsum3_reg_1_ VSS VDD clk n186 n183 n907 n185 ASYNC_DFFHx1_ASAP7_75t_R
Xsum3_reg_0_ VSS VDD clk n184 n183 n901 n182 ASYNC_DFFHx1_ASAP7_75t_R
XU940 VSS VDD n345 n1057 BUFx10_ASAP7_75t_R
XU908 VSS VDD n253 n1046 BUFx3_ASAP7_75t_R
XU909 VSS VDD n279 n1045 BUFx3_ASAP7_75t_R
XU910 VSS VDD n201 n1048 BUFx3_ASAP7_75t_R
XU911 VSS VDD n227 n1047 BUFx3_ASAP7_75t_R
XU1139 VSS VDD n223 n1031 BUFx5_ASAP7_75t_R
XU1140 VSS VDD n263 n1027 BUFx5_ASAP7_75t_R
XU1141 VSS VDD n241 n1029 BUFx5_ASAP7_75t_R
XU1208 VSS VDD n197 n1035 BUFx5_ASAP7_75t_R
XU1210 VSS VDD n249 n1028 BUFx5_ASAP7_75t_R
XU1212 VSS VDD n275 n1025 BUFx5_ASAP7_75t_R
XU1214 VSS VDD n237 n1030 BUFx5_ASAP7_75t_R
XU1216 VSS VDD n211 n1034 BUFx5_ASAP7_75t_R
XU1218 VSS VDD n185 n1037 BUFx5_ASAP7_75t_R
XU1220 VSS VDD n215 n1033 BUFx5_ASAP7_75t_R
XU1222 VSS VDD n219 n1032 BUFx5_ASAP7_75t_R
XU1224 VSS VDD n189 n1036 BUFx5_ASAP7_75t_R
XU1226 VSS VDD n267 n1026 BUFx5_ASAP7_75t_R
XU1230 VSS VDD n193 n1276 BUFx5_ASAP7_75t_R
XU1232 VSS VDD n245 n1258 BUFx5_ASAP7_75t_R
XU1234 VSS VDD n271 n1249 BUFx5_ASAP7_75t_R
Xin_data1_dff_reg_127_ VSS VDD clk n857 in_data1_dff[127] DFFHQNx1_ASAP7_75t_R
Xin_data1_dff_reg_126_ VSS VDD clk n856 in_data1_dff[126] DFFHQNx1_ASAP7_75t_R
Xin_data1_dff_reg_125_ VSS VDD clk n855 in_data1_dff[125] DFFHQNx1_ASAP7_75t_R
Xin_data1_dff_reg_124_ VSS VDD clk n854 in_data1_dff[124] DFFHQNx1_ASAP7_75t_R
Xin_data1_dff_reg_123_ VSS VDD clk n853 in_data1_dff[123] DFFHQNx1_ASAP7_75t_R
Xin_data1_dff_reg_122_ VSS VDD clk n852 in_data1_dff[122] DFFHQNx1_ASAP7_75t_R
Xin_data1_dff_reg_121_ VSS VDD clk n851 in_data1_dff[121] DFFHQNx1_ASAP7_75t_R
Xin_data1_dff_reg_120_ VSS VDD clk n850 in_data1_dff[120] DFFHQNx1_ASAP7_75t_R
Xin_data1_dff_reg_119_ VSS VDD clk n849 in_data1_dff[119] DFFHQNx1_ASAP7_75t_R
Xin_data1_dff_reg_118_ VSS VDD clk n848 in_data1_dff[118] DFFHQNx1_ASAP7_75t_R
Xin_data1_dff_reg_117_ VSS VDD clk n847 in_data1_dff[117] DFFHQNx1_ASAP7_75t_R
Xin_data1_dff_reg_116_ VSS VDD clk n846 in_data1_dff[116] DFFHQNx1_ASAP7_75t_R
Xin_data1_dff_reg_115_ VSS VDD clk n845 in_data1_dff[115] DFFHQNx1_ASAP7_75t_R
Xin_data1_dff_reg_114_ VSS VDD clk n844 in_data1_dff[114] DFFHQNx1_ASAP7_75t_R
Xin_data1_dff_reg_113_ VSS VDD clk n843 in_data1_dff[113] DFFHQNx1_ASAP7_75t_R
Xin_data1_dff_reg_112_ VSS VDD clk n842 in_data1_dff[112] DFFHQNx1_ASAP7_75t_R
Xin_data1_dff_reg_111_ VSS VDD clk n841 in_data1_dff[111] DFFHQNx1_ASAP7_75t_R
Xin_data1_dff_reg_110_ VSS VDD clk n840 in_data1_dff[110] DFFHQNx1_ASAP7_75t_R
Xin_data1_dff_reg_109_ VSS VDD clk n839 in_data1_dff[109] DFFHQNx1_ASAP7_75t_R
Xin_data1_dff_reg_108_ VSS VDD clk n838 in_data1_dff[108] DFFHQNx1_ASAP7_75t_R
Xin_data1_dff_reg_107_ VSS VDD clk n837 in_data1_dff[107] DFFHQNx1_ASAP7_75t_R
Xin_data1_dff_reg_106_ VSS VDD clk n836 in_data1_dff[106] DFFHQNx1_ASAP7_75t_R
Xin_data1_dff_reg_105_ VSS VDD clk n835 in_data1_dff[105] DFFHQNx1_ASAP7_75t_R
Xin_data1_dff_reg_104_ VSS VDD clk n834 in_data1_dff[104] DFFHQNx1_ASAP7_75t_R
Xin_data1_dff_reg_103_ VSS VDD clk n833 in_data1_dff[103] DFFHQNx1_ASAP7_75t_R
Xin_data1_dff_reg_102_ VSS VDD clk n832 in_data1_dff[102] DFFHQNx1_ASAP7_75t_R
Xin_data1_dff_reg_101_ VSS VDD clk n831 in_data1_dff[101] DFFHQNx1_ASAP7_75t_R
Xin_data1_dff_reg_100_ VSS VDD clk n830 in_data1_dff[100] DFFHQNx1_ASAP7_75t_R
Xin_data1_dff_reg_99_ VSS VDD clk n829 in_data1_dff[99] DFFHQNx1_ASAP7_75t_R
Xin_data1_dff_reg_98_ VSS VDD clk n828 in_data1_dff[98] DFFHQNx1_ASAP7_75t_R
Xin_data1_dff_reg_97_ VSS VDD clk n827 in_data1_dff[97] DFFHQNx1_ASAP7_75t_R
Xin_data1_dff_reg_96_ VSS VDD clk n826 in_data1_dff[96] DFFHQNx1_ASAP7_75t_R
Xin_data1_dff_reg_95_ VSS VDD clk n825 in_data1_dff[95] DFFHQNx1_ASAP7_75t_R
Xin_data1_dff_reg_94_ VSS VDD clk n824 in_data1_dff[94] DFFHQNx1_ASAP7_75t_R
Xin_data1_dff_reg_93_ VSS VDD clk n823 in_data1_dff[93] DFFHQNx1_ASAP7_75t_R
Xin_data1_dff_reg_92_ VSS VDD clk n822 in_data1_dff[92] DFFHQNx1_ASAP7_75t_R
Xin_data1_dff_reg_91_ VSS VDD clk n821 in_data1_dff[91] DFFHQNx1_ASAP7_75t_R
Xin_data1_dff_reg_90_ VSS VDD clk n820 in_data1_dff[90] DFFHQNx1_ASAP7_75t_R
Xin_data1_dff_reg_89_ VSS VDD clk n819 in_data1_dff[89] DFFHQNx1_ASAP7_75t_R
Xin_data1_dff_reg_88_ VSS VDD clk n818 in_data1_dff[88] DFFHQNx1_ASAP7_75t_R
Xin_data1_dff_reg_87_ VSS VDD clk n817 in_data1_dff[87] DFFHQNx1_ASAP7_75t_R
Xin_data1_dff_reg_86_ VSS VDD clk n816 in_data1_dff[86] DFFHQNx1_ASAP7_75t_R
Xin_data1_dff_reg_85_ VSS VDD clk n815 in_data1_dff[85] DFFHQNx1_ASAP7_75t_R
Xin_data1_dff_reg_84_ VSS VDD clk n814 in_data1_dff[84] DFFHQNx1_ASAP7_75t_R
Xin_data1_dff_reg_83_ VSS VDD clk n813 in_data1_dff[83] DFFHQNx1_ASAP7_75t_R
Xin_data1_dff_reg_82_ VSS VDD clk n812 in_data1_dff[82] DFFHQNx1_ASAP7_75t_R
Xin_data1_dff_reg_81_ VSS VDD clk n811 in_data1_dff[81] DFFHQNx1_ASAP7_75t_R
Xin_data1_dff_reg_80_ VSS VDD clk n810 in_data1_dff[80] DFFHQNx1_ASAP7_75t_R
Xin_data1_dff_reg_79_ VSS VDD clk n809 in_data1_dff[79] DFFHQNx1_ASAP7_75t_R
Xin_data1_dff_reg_78_ VSS VDD clk n808 in_data1_dff[78] DFFHQNx1_ASAP7_75t_R
Xin_data1_dff_reg_77_ VSS VDD clk n807 in_data1_dff[77] DFFHQNx1_ASAP7_75t_R
Xin_data1_dff_reg_76_ VSS VDD clk n806 in_data1_dff[76] DFFHQNx1_ASAP7_75t_R
Xin_data1_dff_reg_75_ VSS VDD clk n805 in_data1_dff[75] DFFHQNx1_ASAP7_75t_R
Xin_data1_dff_reg_74_ VSS VDD clk n804 in_data1_dff[74] DFFHQNx1_ASAP7_75t_R
Xin_data1_dff_reg_73_ VSS VDD clk n803 in_data1_dff[73] DFFHQNx1_ASAP7_75t_R
Xin_data1_dff_reg_72_ VSS VDD clk n802 in_data1_dff[72] DFFHQNx1_ASAP7_75t_R
Xin_data1_dff_reg_71_ VSS VDD clk n801 in_data1_dff[71] DFFHQNx1_ASAP7_75t_R
Xin_data1_dff_reg_70_ VSS VDD clk n800 in_data1_dff[70] DFFHQNx1_ASAP7_75t_R
Xin_data1_dff_reg_69_ VSS VDD clk n799 in_data1_dff[69] DFFHQNx1_ASAP7_75t_R
Xin_data1_dff_reg_68_ VSS VDD clk n798 in_data1_dff[68] DFFHQNx1_ASAP7_75t_R
Xin_data1_dff_reg_67_ VSS VDD clk n797 in_data1_dff[67] DFFHQNx1_ASAP7_75t_R
Xin_data1_dff_reg_66_ VSS VDD clk n796 in_data1_dff[66] DFFHQNx1_ASAP7_75t_R
Xin_data1_dff_reg_65_ VSS VDD clk n795 in_data1_dff[65] DFFHQNx1_ASAP7_75t_R
Xin_data1_dff_reg_64_ VSS VDD clk n794 in_data1_dff[64] DFFHQNx1_ASAP7_75t_R
Xin_data1_dff_reg_63_ VSS VDD clk n793 in_data1_dff[63] DFFHQNx1_ASAP7_75t_R
Xin_data1_dff_reg_62_ VSS VDD clk n792 in_data1_dff[62] DFFHQNx1_ASAP7_75t_R
Xin_data1_dff_reg_61_ VSS VDD clk n791 in_data1_dff[61] DFFHQNx1_ASAP7_75t_R
Xin_data1_dff_reg_60_ VSS VDD clk n790 in_data1_dff[60] DFFHQNx1_ASAP7_75t_R
Xin_data1_dff_reg_59_ VSS VDD clk n789 in_data1_dff[59] DFFHQNx1_ASAP7_75t_R
Xin_data1_dff_reg_58_ VSS VDD clk n788 in_data1_dff[58] DFFHQNx1_ASAP7_75t_R
Xin_data1_dff_reg_57_ VSS VDD clk n787 in_data1_dff[57] DFFHQNx1_ASAP7_75t_R
Xin_data1_dff_reg_56_ VSS VDD clk n786 in_data1_dff[56] DFFHQNx1_ASAP7_75t_R
Xin_data1_dff_reg_55_ VSS VDD clk n785 in_data1_dff[55] DFFHQNx1_ASAP7_75t_R
Xin_data1_dff_reg_54_ VSS VDD clk n784 in_data1_dff[54] DFFHQNx1_ASAP7_75t_R
Xin_data1_dff_reg_53_ VSS VDD clk n783 in_data1_dff[53] DFFHQNx1_ASAP7_75t_R
Xin_data1_dff_reg_52_ VSS VDD clk n782 in_data1_dff[52] DFFHQNx1_ASAP7_75t_R
Xin_data1_dff_reg_51_ VSS VDD clk n781 in_data1_dff[51] DFFHQNx1_ASAP7_75t_R
Xin_data1_dff_reg_50_ VSS VDD clk n780 in_data1_dff[50] DFFHQNx1_ASAP7_75t_R
Xin_data1_dff_reg_49_ VSS VDD clk n779 in_data1_dff[49] DFFHQNx1_ASAP7_75t_R
Xin_data1_dff_reg_48_ VSS VDD clk n778 in_data1_dff[48] DFFHQNx1_ASAP7_75t_R
Xin_data1_dff_reg_47_ VSS VDD clk n777 in_data1_dff[47] DFFHQNx1_ASAP7_75t_R
Xin_data1_dff_reg_46_ VSS VDD clk n776 in_data1_dff[46] DFFHQNx1_ASAP7_75t_R
Xin_data1_dff_reg_45_ VSS VDD clk n775 in_data1_dff[45] DFFHQNx1_ASAP7_75t_R
Xin_data1_dff_reg_44_ VSS VDD clk n774 in_data1_dff[44] DFFHQNx1_ASAP7_75t_R
Xin_data1_dff_reg_43_ VSS VDD clk n773 in_data1_dff[43] DFFHQNx1_ASAP7_75t_R
Xin_data1_dff_reg_42_ VSS VDD clk n772 in_data1_dff[42] DFFHQNx1_ASAP7_75t_R
Xin_data1_dff_reg_41_ VSS VDD clk n771 in_data1_dff[41] DFFHQNx1_ASAP7_75t_R
Xin_data1_dff_reg_40_ VSS VDD clk n770 in_data1_dff[40] DFFHQNx1_ASAP7_75t_R
Xin_data1_dff_reg_39_ VSS VDD clk n769 in_data1_dff[39] DFFHQNx1_ASAP7_75t_R
Xin_data1_dff_reg_38_ VSS VDD clk n768 in_data1_dff[38] DFFHQNx1_ASAP7_75t_R
Xin_data1_dff_reg_37_ VSS VDD clk n767 in_data1_dff[37] DFFHQNx1_ASAP7_75t_R
Xin_data1_dff_reg_36_ VSS VDD clk n766 in_data1_dff[36] DFFHQNx1_ASAP7_75t_R
Xin_data1_dff_reg_35_ VSS VDD clk n765 in_data1_dff[35] DFFHQNx1_ASAP7_75t_R
Xin_data1_dff_reg_34_ VSS VDD clk n764 in_data1_dff[34] DFFHQNx1_ASAP7_75t_R
Xin_data1_dff_reg_33_ VSS VDD clk n763 in_data1_dff[33] DFFHQNx1_ASAP7_75t_R
Xin_data1_dff_reg_32_ VSS VDD clk n762 in_data1_dff[32] DFFHQNx1_ASAP7_75t_R
Xin_data1_dff_reg_31_ VSS VDD clk n761 in_data1_dff[31] DFFHQNx1_ASAP7_75t_R
Xin_data1_dff_reg_30_ VSS VDD clk n760 in_data1_dff[30] DFFHQNx1_ASAP7_75t_R
Xin_data1_dff_reg_29_ VSS VDD clk n759 in_data1_dff[29] DFFHQNx1_ASAP7_75t_R
Xin_data1_dff_reg_28_ VSS VDD clk n758 in_data1_dff[28] DFFHQNx1_ASAP7_75t_R
Xin_data1_dff_reg_27_ VSS VDD clk n757 in_data1_dff[27] DFFHQNx1_ASAP7_75t_R
Xin_data1_dff_reg_26_ VSS VDD clk n756 in_data1_dff[26] DFFHQNx1_ASAP7_75t_R
Xin_data1_dff_reg_25_ VSS VDD clk n755 in_data1_dff[25] DFFHQNx1_ASAP7_75t_R
Xin_data1_dff_reg_24_ VSS VDD clk n754 in_data1_dff[24] DFFHQNx1_ASAP7_75t_R
Xin_data1_dff_reg_23_ VSS VDD clk n753 in_data1_dff[23] DFFHQNx1_ASAP7_75t_R
Xin_data1_dff_reg_22_ VSS VDD clk n752 in_data1_dff[22] DFFHQNx1_ASAP7_75t_R
Xin_data1_dff_reg_21_ VSS VDD clk n751 in_data1_dff[21] DFFHQNx1_ASAP7_75t_R
Xin_data1_dff_reg_20_ VSS VDD clk n750 in_data1_dff[20] DFFHQNx1_ASAP7_75t_R
Xin_data1_dff_reg_19_ VSS VDD clk n749 in_data1_dff[19] DFFHQNx1_ASAP7_75t_R
Xin_data1_dff_reg_18_ VSS VDD clk n748 in_data1_dff[18] DFFHQNx1_ASAP7_75t_R
Xin_data1_dff_reg_17_ VSS VDD clk n747 in_data1_dff[17] DFFHQNx1_ASAP7_75t_R
Xin_data1_dff_reg_16_ VSS VDD clk n746 in_data1_dff[16] DFFHQNx1_ASAP7_75t_R
Xin_data1_dff_reg_15_ VSS VDD clk n745 in_data1_dff[15] DFFHQNx1_ASAP7_75t_R
Xin_data1_dff_reg_14_ VSS VDD clk n744 in_data1_dff[14] DFFHQNx1_ASAP7_75t_R
Xin_data1_dff_reg_13_ VSS VDD clk n743 in_data1_dff[13] DFFHQNx1_ASAP7_75t_R
Xin_data1_dff_reg_12_ VSS VDD clk n742 in_data1_dff[12] DFFHQNx1_ASAP7_75t_R
Xin_data1_dff_reg_11_ VSS VDD clk n741 in_data1_dff[11] DFFHQNx1_ASAP7_75t_R
Xin_data1_dff_reg_10_ VSS VDD clk n740 in_data1_dff[10] DFFHQNx1_ASAP7_75t_R
Xin_data1_dff_reg_9_ VSS VDD clk n739 in_data1_dff[9] DFFHQNx1_ASAP7_75t_R
Xin_data1_dff_reg_8_ VSS VDD clk n738 in_data1_dff[8] DFFHQNx1_ASAP7_75t_R
Xin_data1_dff_reg_7_ VSS VDD clk n737 in_data1_dff[7] DFFHQNx1_ASAP7_75t_R
Xin_data1_dff_reg_6_ VSS VDD clk n736 in_data1_dff[6] DFFHQNx1_ASAP7_75t_R
Xin_data1_dff_reg_5_ VSS VDD clk n735 in_data1_dff[5] DFFHQNx1_ASAP7_75t_R
Xin_data1_dff_reg_4_ VSS VDD clk n734 in_data1_dff[4] DFFHQNx1_ASAP7_75t_R
Xin_data1_dff_reg_3_ VSS VDD clk n733 in_data1_dff[3] DFFHQNx1_ASAP7_75t_R
Xin_data1_dff_reg_2_ VSS VDD clk n732 in_data1_dff[2] DFFHQNx1_ASAP7_75t_R
Xin_data1_dff_reg_1_ VSS VDD clk n731 in_data1_dff[1] DFFHQNx1_ASAP7_75t_R
Xin_data1_dff_reg_0_ VSS VDD clk n730 in_data1_dff[0] DFFHQNx1_ASAP7_75t_R
Xin_data2_dff_reg_127_ VSS VDD clk n729 in_data2_dff[127] DFFHQNx1_ASAP7_75t_R
Xin_data2_dff_reg_126_ VSS VDD clk n728 in_data2_dff[126] DFFHQNx1_ASAP7_75t_R
Xin_data2_dff_reg_125_ VSS VDD clk n727 in_data2_dff[125] DFFHQNx1_ASAP7_75t_R
Xin_data2_dff_reg_124_ VSS VDD clk n726 in_data2_dff[124] DFFHQNx1_ASAP7_75t_R
Xin_data2_dff_reg_123_ VSS VDD clk n725 in_data2_dff[123] DFFHQNx1_ASAP7_75t_R
Xin_data2_dff_reg_122_ VSS VDD clk n724 in_data2_dff[122] DFFHQNx1_ASAP7_75t_R
Xin_data2_dff_reg_121_ VSS VDD clk n723 in_data2_dff[121] DFFHQNx1_ASAP7_75t_R
Xin_data2_dff_reg_120_ VSS VDD clk n722 in_data2_dff[120] DFFHQNx1_ASAP7_75t_R
Xin_data2_dff_reg_119_ VSS VDD clk n721 in_data2_dff[119] DFFHQNx1_ASAP7_75t_R
Xin_data2_dff_reg_118_ VSS VDD clk n720 in_data2_dff[118] DFFHQNx1_ASAP7_75t_R
Xin_data2_dff_reg_117_ VSS VDD clk n719 in_data2_dff[117] DFFHQNx1_ASAP7_75t_R
Xin_data2_dff_reg_116_ VSS VDD clk n718 in_data2_dff[116] DFFHQNx1_ASAP7_75t_R
Xin_data2_dff_reg_115_ VSS VDD clk n717 in_data2_dff[115] DFFHQNx1_ASAP7_75t_R
Xin_data2_dff_reg_114_ VSS VDD clk n716 in_data2_dff[114] DFFHQNx1_ASAP7_75t_R
Xin_data2_dff_reg_113_ VSS VDD clk n715 in_data2_dff[113] DFFHQNx1_ASAP7_75t_R
Xin_data2_dff_reg_112_ VSS VDD clk n714 in_data2_dff[112] DFFHQNx1_ASAP7_75t_R
Xin_data2_dff_reg_111_ VSS VDD clk n713 in_data2_dff[111] DFFHQNx1_ASAP7_75t_R
Xin_data2_dff_reg_110_ VSS VDD clk n712 in_data2_dff[110] DFFHQNx1_ASAP7_75t_R
Xin_data2_dff_reg_109_ VSS VDD clk n711 in_data2_dff[109] DFFHQNx1_ASAP7_75t_R
Xin_data2_dff_reg_108_ VSS VDD clk n710 in_data2_dff[108] DFFHQNx1_ASAP7_75t_R
Xin_data2_dff_reg_107_ VSS VDD clk n709 in_data2_dff[107] DFFHQNx1_ASAP7_75t_R
Xin_data2_dff_reg_106_ VSS VDD clk n708 in_data2_dff[106] DFFHQNx1_ASAP7_75t_R
Xin_data2_dff_reg_105_ VSS VDD clk n707 in_data2_dff[105] DFFHQNx1_ASAP7_75t_R
Xin_data2_dff_reg_104_ VSS VDD clk n706 in_data2_dff[104] DFFHQNx1_ASAP7_75t_R
Xin_data2_dff_reg_103_ VSS VDD clk n705 in_data2_dff[103] DFFHQNx1_ASAP7_75t_R
Xin_data2_dff_reg_102_ VSS VDD clk n704 in_data2_dff[102] DFFHQNx1_ASAP7_75t_R
Xin_data2_dff_reg_101_ VSS VDD clk n703 in_data2_dff[101] DFFHQNx1_ASAP7_75t_R
Xin_data2_dff_reg_100_ VSS VDD clk n702 in_data2_dff[100] DFFHQNx1_ASAP7_75t_R
Xin_data2_dff_reg_99_ VSS VDD clk n701 in_data2_dff[99] DFFHQNx1_ASAP7_75t_R
Xin_data2_dff_reg_98_ VSS VDD clk n700 in_data2_dff[98] DFFHQNx1_ASAP7_75t_R
Xin_data2_dff_reg_97_ VSS VDD clk n699 in_data2_dff[97] DFFHQNx1_ASAP7_75t_R
Xin_data2_dff_reg_96_ VSS VDD clk n698 in_data2_dff[96] DFFHQNx1_ASAP7_75t_R
Xin_data2_dff_reg_95_ VSS VDD clk n697 in_data2_dff[95] DFFHQNx1_ASAP7_75t_R
Xin_data2_dff_reg_94_ VSS VDD clk n696 in_data2_dff[94] DFFHQNx1_ASAP7_75t_R
Xin_data2_dff_reg_93_ VSS VDD clk n695 in_data2_dff[93] DFFHQNx1_ASAP7_75t_R
Xin_data2_dff_reg_92_ VSS VDD clk n694 in_data2_dff[92] DFFHQNx1_ASAP7_75t_R
Xin_data2_dff_reg_91_ VSS VDD clk n693 in_data2_dff[91] DFFHQNx1_ASAP7_75t_R
Xin_data2_dff_reg_90_ VSS VDD clk n692 in_data2_dff[90] DFFHQNx1_ASAP7_75t_R
Xin_data2_dff_reg_89_ VSS VDD clk n691 in_data2_dff[89] DFFHQNx1_ASAP7_75t_R
Xin_data2_dff_reg_88_ VSS VDD clk n690 in_data2_dff[88] DFFHQNx1_ASAP7_75t_R
Xin_data2_dff_reg_87_ VSS VDD clk n689 in_data2_dff[87] DFFHQNx1_ASAP7_75t_R
Xin_data2_dff_reg_86_ VSS VDD clk n688 in_data2_dff[86] DFFHQNx1_ASAP7_75t_R
Xin_data2_dff_reg_85_ VSS VDD clk n687 in_data2_dff[85] DFFHQNx1_ASAP7_75t_R
Xin_data2_dff_reg_84_ VSS VDD clk n686 in_data2_dff[84] DFFHQNx1_ASAP7_75t_R
Xin_data2_dff_reg_83_ VSS VDD clk n685 in_data2_dff[83] DFFHQNx1_ASAP7_75t_R
Xin_data2_dff_reg_82_ VSS VDD clk n684 in_data2_dff[82] DFFHQNx1_ASAP7_75t_R
Xin_data2_dff_reg_81_ VSS VDD clk n683 in_data2_dff[81] DFFHQNx1_ASAP7_75t_R
Xin_data2_dff_reg_80_ VSS VDD clk n682 in_data2_dff[80] DFFHQNx1_ASAP7_75t_R
Xin_data2_dff_reg_79_ VSS VDD clk n681 in_data2_dff[79] DFFHQNx1_ASAP7_75t_R
Xin_data2_dff_reg_78_ VSS VDD clk n680 in_data2_dff[78] DFFHQNx1_ASAP7_75t_R
Xin_data2_dff_reg_77_ VSS VDD clk n679 in_data2_dff[77] DFFHQNx1_ASAP7_75t_R
Xin_data2_dff_reg_76_ VSS VDD clk n678 in_data2_dff[76] DFFHQNx1_ASAP7_75t_R
Xin_data2_dff_reg_75_ VSS VDD clk n677 in_data2_dff[75] DFFHQNx1_ASAP7_75t_R
Xin_data2_dff_reg_74_ VSS VDD clk n676 in_data2_dff[74] DFFHQNx1_ASAP7_75t_R
Xin_data2_dff_reg_73_ VSS VDD clk n675 in_data2_dff[73] DFFHQNx1_ASAP7_75t_R
Xin_data2_dff_reg_72_ VSS VDD clk n674 in_data2_dff[72] DFFHQNx1_ASAP7_75t_R